Version 4
SHEET 1 880 680
WIRE 112 64 48 64
WIRE 160 64 112 64
WIRE 256 64 176 64
WIRE 320 64 256 64
WIRE 336 64 320 64
WIRE 48 128 48 64
WIRE 256 128 256 64
WIRE 336 128 336 64
WIRE 48 272 48 208
WIRE 256 272 256 192
WIRE 256 272 48 272
WIRE 336 272 336 208
WIRE 336 272 256 272
WIRE 48 288 48 272
FLAG 48 288 0
FLAG 320 64 I
SYMBOL diode 112 80 R270
WINDOW 0 32 32 VTop 2
WINDOW 3 0 32 VBottom 2
SYMATTR InstName D1
SYMATTR Value D1n4004rl
SYMBOL voltage 48 112 R0
WINDOW 123 0 0 Left 0
WINDOW 39 0 0 Left 0
SYMATTR InstName V1
SYMATTR Value SINE(0 {A} {f})
SYMBOL cap 240 128 R0
SYMATTR InstName C1
SYMATTR Value {C}
SYMBOL res 320 112 R0
SYMATTR InstName R1
SYMATTR Value 1k
TEXT 416 48 Left 2 !.inc 1N4004RL.lib
TEXT 416 72 Left 2 !.param A=12*sqrt(2)
TEXT 416 96 Left 2 !.param f=60
TEXT 416 120 Left 2 !;step param C 180u 260u 20u
TEXT 416 144 Left 2 !.meas Vmax MAX V(I)
TEXT 416 168 Left 2 !.meas Vmin MIN V(I)
TEXT 416 192 Left 2 !.meas Vrpp param Vmax - Vmin
TEXT 422 260 Left 2 !.tran 0 60m 0m
TEXT 416 216 Left 2 !.param C = 240u
